$ ============================================================================
$  v41_ep_3p1uj.k
$  Generated by scripts/build_v41_dynamic_ablation_deletion.py -- DO NOT HAND-EDIT.
$
$  V4B dynamic ablation with pre-deleted vapor-zone elements.
$  Removed elements: 30
$  Estimated vapor radius: 3.0949 um
$  Removed layer depth: 0.05 um
$
$  Units: mm - ms - kg - kN - GPa
$ ============================================================================
*KEYWORD
*TITLE
V41 V4B predeleted ablation ep_3p1uj Ep=3.1uJ
$
*CONTROL_TERMINATION
 5.000e-06
$
*CONTROL_TIMESTEP
       0.0 6.700e-01
$
*DATABASE_BINARY_D3PLOT
 1.000e-08
$
*DATABASE_GLSTAT
 1.000e-08
$
*DATABASE_MATSUM
 1.000e-08
$
*MAT_ELASTIC
$#     mid        ro         e        pr
         1 2.330e-06 1.300e+02 2.800e-01
$
*SECTION_SHELL
         1        15
 1.000e+00 1.000e+00 1.000e+00 1.000e+00
$
*PART
Silicon V4B predeleted ablation ep_3p1uj
         1         1         1
$
*NODE
       1   0.0000000e+00   0.0000000e+00   0.0000000e+00
       2   5.0000000e-04   0.0000000e+00   0.0000000e+00
       3   1.0000000e-03   0.0000000e+00   0.0000000e+00
       4   1.5000000e-03   0.0000000e+00   0.0000000e+00
       5   2.0000000e-03   0.0000000e+00   0.0000000e+00
       6   2.5000000e-03   0.0000000e+00   0.0000000e+00
       7   3.0000000e-03   0.0000000e+00   0.0000000e+00
       8   3.5000000e-03   0.0000000e+00   0.0000000e+00
       9   4.0000000e-03   0.0000000e+00   0.0000000e+00
      10   4.5000000e-03   0.0000000e+00   0.0000000e+00
      11   5.0000000e-03   0.0000000e+00   0.0000000e+00
      12   5.5000000e-03   0.0000000e+00   0.0000000e+00
      13   6.0000000e-03   0.0000000e+00   0.0000000e+00
      14   6.5000000e-03   0.0000000e+00   0.0000000e+00
      15   7.0000000e-03   0.0000000e+00   0.0000000e+00
      16   7.5000000e-03   0.0000000e+00   0.0000000e+00
      17   8.0000000e-03   0.0000000e+00   0.0000000e+00
      18   8.5000000e-03   0.0000000e+00   0.0000000e+00
      19   9.0000000e-03   0.0000000e+00   0.0000000e+00
      20   9.5000000e-03   0.0000000e+00   0.0000000e+00
$ ... 7513 like lines cut
$
*ELEMENT_SHELL
       1       1       1       2      83      82
       2       1       2       3      84      83
       3       1       3       4      85      84
       4       1       4       5      86      85
       5       1       5       6      87      86
       6       1       6       7      88      87
       7       1       7       8      89      88
       8       1       8       9      90      89
       9       1       9      10      91      90
      10       1      10      11      92      91
      11       1      11      12      93      92
      12       1      12      13      94      93
      13       1      13      14      95      94
      14       1      14      15      96      95
      15       1      15      16      97      96
      16       1      16      17      98      97
      17       1      17      18      99      98
      18       1      18      19     100      99
      19       1      19      20     101     100
      20       1      20      21     102     101
$ ... 7310 like lines cut
$
*BOUNDARY_SPC_NODE
$#     nid     cid    dofx    dofy    dofz   dofrx   dofry   dofrz
       1       0       1       0       1       0       0       0
      82       0       1       0       1       0       0       0
     163       0       1       0       1       0       0       0
     244       0       1       0       1       0       0       0
     325       0       1       0       1       0       0       0
     406       0       1       0       1       0       0       0
     487       0       1       0       1       0       0       0
     568       0       1       0       1       0       0       0
     649       0       1       0       1       0       0       0
     730       0       1       0       1       0       0       0
     811       0       1       0       1       0       0       0
     892       0       1       0       1       0       0       0
     973       0       1       0       1       0       0       0
    1054       0       1       0       1       0       0       0
    1135       0       1       0       1       0       0       0
    1216       0       1       0       1       0       0       0
    1297       0       1       0       1       0       0       0
    1378       0       1       0       1       0       0       0
    1459       0       1       0       1       0       0       0
    1540       0       1       0       1       0       0       0
$ ... 154 like lines cut
$
*INITIAL_VELOCITY_NODE
$#     nid        vx        vy        vz       vrx       vry       vrz
      7048       0.0-1.000e+02       0.0       0.0       0.0       0.0
      7049 1.533e+00-9.491e+01       0.0       0.0       0.0       0.0
      7050 2.622e+00-8.116e+01       0.0       0.0       0.0       0.0
      7051 3.030e+00-6.251e+01       0.0       0.0       0.0       0.0
      7052 2.803e+00-4.338e+01       0.0       0.0       0.0       0.0
      7053 2.190e+00-2.712e+01       0.0       0.0       0.0       0.0
      7054 1.480e+00-1.527e+01       0.0       0.0       0.0       0.0
      7135 1.480e+00-1.527e+01       0.0       0.0       0.0       0.0
      7216 1.480e+00-1.527e+01       0.0       0.0       0.0       0.0
      7297 1.480e+00-1.527e+01       0.0       0.0       0.0       0.0
      7378 1.480e+00-1.527e+01       0.0       0.0       0.0       0.0
      7459 1.480e+00-1.527e+01       0.0       0.0       0.0       0.0
$
$ ---------------------------------------------------------------------------
$ V4B pre-deletes vapor-zone elements by omitting them from *ELEMENT_SHELL.
$ V4C should replace this with solver-version-specific active erosion.
$ ---------------------------------------------------------------------------
*END
