$ ============================================================================
$  v1_thermal_silicon.k
$  Version 1 -- 2D axisymmetric silicon wafer, pure thermal laser heating.
$
$  Goal: validate Gaussian laser source + Si thermal properties + T field.
$        No erosion, no SPH, no plume, no structured-light post-processing.
$
$  Units: mm - ms - kg - kN - GPa - K
$     length mm   time ms   mass kg   force kN   stress GPa   temperature K
$     energy J (= kN*mm)   power kW (= kN*mm/ms)   heat flux kW/mm^2
$
$  Geometry (2D axisymmetric, Y axis = symmetry axis, X = radial):
$     radius R = 0.500 mm = 500.0 um
$     thickness H = 0.200 mm = 200.0 um
$     radial  NR = 100 elements, dr = 5.000 um
$     axial   NZ = 80 elements, dz = 2.500 um
$     nodes  : 8181
$     shells : 8000
$
$  Material (silicon, simplified room-T constant properties):
$     rho = 2.330e-06 kg/mm^3  (= 2330 kg/m^3)
$     cp  = 700.0 J/(kg*K)
$     k   = 1.500e-04 kW/(mm*K)  (= 150 W/(m*K))
$
$  Laser:
$     w0 (1/e^2 radius) = 20.0 um
$     pulse width tau   = 100.0 ns (= 1.000e-04 ms)
$     peak surface flux I0 = 10.00 kW/mm^2 (= 1e10 W/m^2, conservative)
$     spatial : q(r) = I0 * exp(-2 r^2 / w0^2)
$     temporal: rectangular pulse on [0, tau]
$
$  Sign convention for *BOUNDARY_FLUX in LS-DYNA: negative value => heat
$  flows INTO the body (heating). Here mlc_i = -exp(-2 r^2 / w0^2) combined
$  with a positive LCID curve produces heating.
$ ============================================================================
*KEYWORD
*TITLE
V1 2D Axisymmetric Silicon Laser Thermal
$
$ ---------------------- Solution control ----------------------
*CONTROL_SOLUTION
$#    soln       nlq     isnan     lcint     lcacc
         1
$
*CONTROL_TERMINATION
$#  endtim    endcyc     dtmin    endeng    endmas     nosol
 5.000e-04
$
$ ---------------------- Thermal solver ----------------------
*CONTROL_THERMAL_SOLVER
$#   atype     ptype    solver     cgtol       gpt    eqheat     fwork       sbc
         1         0        11 1.000e-06         8 1.000e+00       0.0       0.0
$
*CONTROL_THERMAL_TIMESTEP
$#      ts       tip       its      tmin      tmax     dtemp      tscp      lcts
         1 5.000e-01 1.000e-08 1.000e-11 1.000e-07 5.000e+01 5.000e-01         0
$
$ ---------------------- Output (binary + ASCII) ----------------------
*DATABASE_BINARY_D3PLOT
$#      dt
 2.000e-05
$
*DATABASE_BINARY_D3THDT
$#      dt
 2.000e-05
$
*DATABASE_TPRINT
$#      dt
 2.000e-05
$
*DATABASE_GLSTAT
$#      dt
 2.000e-05
$
$ ---------------------- Thermal material (silicon, constant) ----------------------
*MAT_THERMAL_ISOTROPIC
$#    tmid       tro     tgrlc    tgmult      tlat      hlat
         1 2.330e-06
$#      hc        tc
 7.000e+02 1.500e-04
$
$ ---------------------- Section / Part ----------------------
*SECTION_SHELL
$#   secid    elform      shrf       nip     propt    qr/irid     icomp     setyp
         1        15
$#      t1        t2        t3        t4      nloc     marea      idof    edgset
 1.000e+00 1.000e+00 1.000e+00 1.000e+00
$
*PART
Silicon wafer 2D axisymmetric
$#     pid     secid       mid     eosid      hgid      grav    adpopt      tmid
         1         1         0         0         0         0         0         1
$
$ ---------------------- Nodes ----------------------
*NODE
       1   0.0000000e+00   0.0000000e+00   0.0000000e+00
       2   5.0000000e-03   0.0000000e+00   0.0000000e+00
       3   1.0000000e-02   0.0000000e+00   0.0000000e+00
       4   1.5000000e-02   0.0000000e+00   0.0000000e+00
       5   2.0000000e-02   0.0000000e+00   0.0000000e+00
       6   2.5000000e-02   0.0000000e+00   0.0000000e+00
       7   3.0000000e-02   0.0000000e+00   0.0000000e+00
       8   3.5000000e-02   0.0000000e+00   0.0000000e+00
       9   4.0000000e-02   0.0000000e+00   0.0000000e+00
      10   4.5000000e-02   0.0000000e+00   0.0000000e+00
      11   5.0000000e-02   0.0000000e+00   0.0000000e+00
      12   5.5000000e-02   0.0000000e+00   0.0000000e+00
      13   6.0000000e-02   0.0000000e+00   0.0000000e+00
      14   6.5000000e-02   0.0000000e+00   0.0000000e+00
      15   7.0000000e-02   0.0000000e+00   0.0000000e+00
      16   7.5000000e-02   0.0000000e+00   0.0000000e+00
      17   8.0000000e-02   0.0000000e+00   0.0000000e+00
      18   8.5000000e-02   0.0000000e+00   0.0000000e+00
      19   9.0000000e-02   0.0000000e+00   0.0000000e+00
      20   9.5000000e-02   0.0000000e+00   0.0000000e+00
$ ... 8161 like lines cut
$
*ELEMENT_SHELL
       1       1       1       2     103     102
       2       1       2       3     104     103
       3       1       3       4     105     104
       4       1       4       5     106     105
       5       1       5       6     107     106
       6       1       6       7     108     107
       7       1       7       8     109     108
       8       1       8       9     110     109
       9       1       9      10     111     110
      10       1      10      11     112     111
      11       1      11      12     113     112
      12       1      12      13     114     113
      13       1      13      14     115     114
      14       1      14      15     116     115
      15       1      15      16     117     116
      16       1      16      17     118     117
      17       1      17      18     119     118
      18       1      18      19     120     119
      19       1      19      20     121     120
      20       1      20      21     122     121
$ ... 7980 like lines cut
$
$ ---------------------- Initial temperature (all nodes) ----------------------
*INITIAL_TEMPERATURE_SET
$#    nsid      temp       loc
         0 3.000e+02         0
$
$ ---------------------- Laser temporal pulse: rectangular [0, tau] ----------------------
$  LCID 1 = peak surface heat flux vs time (kW/mm^2).
$  Multiplied by per-segment mlc = -exp(-2 r^2 / w0^2) gives the Gaussian heating.
*DEFINE_CURVE
$#    lcid      sidr       sfa       sfo      offa      offo    dattyp
         1
$#               a1                  o1
       0.0000000e+00       1.0000000e+01
       1.0000000e-04       1.0000000e+01
       1.0001000e-04       0.0000000e+00
       5.0000000e-04       0.0000000e+00
$
$ ---------------------- Top-surface Gaussian heat flux (per-segment) ----------------------
*BOUNDARY_FLUX_SEGMENT
$#      n1        n2        n3        n4
$#    lcid      mlc1      mlc2      mlc3      mlc4
      8081      8082      8082      8081
         1-1.000e+00-8.825e-01-8.825e-01-1.000e+00
      8082      8083      8083      8082
         1-8.825e-01-6.065e-01-6.065e-01-8.825e-01
      8083      8084      8084      8083
         1-6.065e-01-3.247e-01-3.247e-01-6.065e-01
      8084      8085      8085      8084
         1-3.247e-01-1.353e-01-1.353e-01-3.247e-01
      8085      8086      8086      8085
         1-1.353e-01-4.394e-02-4.394e-02-1.353e-01
      8086      8087      8087      8086
         1-4.394e-02-1.111e-02-1.111e-02-4.394e-02
      8087      8088      8088      8087
         1-1.111e-02-2.187e-03-2.187e-03-1.111e-02
      8088      8089      8089      8088
         1-2.187e-03-3.355e-04-3.355e-04-2.187e-03
      8089      8090      8090      8089
         1-3.355e-04-4.007e-05-4.007e-05-3.355e-04
      8090      8091      8091      8090
         1-4.007e-05-3.727e-06-3.727e-06-4.007e-05
$ ... 10 like lines cut
$
*END
